<?xml version="1.0" encoding="UTF-8"?>

<!-- generated on 2026-06-04T00:50:05.099383+00:00 by Eclipse SUMO netgenerate v1_26_0+1319-1c471fba8c9
<netgenerateConfiguration xmlns:xsi="http://www.w3.org/2001/XMLSchema-instance" xsi:noNamespaceSchemaLocation="http://sumo.dlr.de/xsd/netgenerateConfiguration.xsd">

    <grid_network>
        <grid value="true"/>
        <grid.x-number value="3"/>
        <grid.y-number value="3"/>
        <grid.x-length value="200"/>
        <grid.y-length value="200"/>
    </grid_network>

    <output>
        <output-file value="/workspace/sumo_rl/nets/3x3grid/3x3.net.xml"/>
    </output>

    <building_defaults>
        <default.lanenumber value="2"/>
        <default.speed value="13.89"/>
        <default.sidewalk-width value="2"/>
        <default.junctions.keep-clear value="0"/>
    </building_defaults>

    <tls_building>
        <tls.set value="B1"/>
        <tls.guess value="false"/>
    </tls_building>

    <pedestrian>
        <sidewalks.guess value="true"/>
        <crossings.guess value="true"/>
        <walkingareas value="true"/>
    </pedestrian>

    <report>
        <no-warnings value="true"/>
    </report>

</netgenerateConfiguration>
-->

<net version="1.20" junctionCornerDetail="5" walkingareas="true" limitTurnSpeed="5.50" xmlns:xsi="http://www.w3.org/2001/XMLSchema-instance" xsi:noNamespaceSchemaLocation="http://sumo.dlr.de/xsd/net_file.xsd">

    <location netOffset="0.00,0.00" convBoundary="0.00,0.00,400.00,400.00" origBoundary="0.00,0.00,400.00,400.00" projParameter="!"/>

    <edge id=":A0_0" function="internal">
        <lane id=":A0_0_0" index="0" disallow="pedestrian" speed="9.69" length="21.29" shape="-4.80,8.40 -3.97,2.63 -1.50,-1.50 2.63,-3.97 8.40,-4.80"/>
        <lane id=":A0_0_1" index="1" disallow="pedestrian" speed="8.49" length="16.13" shape="-1.60,8.40 -0.97,4.03 0.90,0.90 4.03,-0.97 8.40,-1.60"/>
    </edge>
    <edge id=":A0_2" function="internal">
        <lane id=":A0_2_0" index="0" disallow="pedestrian" speed="5.37" length="5.81" shape="8.40,4.80 6.83,5.03 5.70,5.70 5.02,6.83 4.80,8.40"/>
        <lane id=":A0_2_1" index="1" disallow="pedestrian" speed="7.10" length="6.77" shape="8.40,1.60 5.43,2.03 3.30,3.30 2.64,4.40"/>
    </edge>
    <edge id=":A0_4" function="internal">
        <lane id=":A0_4_0" index="0" disallow="pedestrian" speed="7.10" length="4.20" shape="2.64,4.40 2.02,5.43 1.60,8.40"/>
    </edge>
    <edge id=":A0_c0" function="crossing" crossingEdges="A0A1 A1A0">
        <lane id=":A0_c0_0" index="0" allow="pedestrian" speed="2.78" length="12.80" width="4.00" shape="6.40,6.40 -6.40,6.40" outlineShape="6.50,8.40 -6.40,8.40 -8.04,4.40 -8.40,8.40 -6.40,8.40 -6.40,4.40 6.40,4.40 8.40,6.40 7.79,6.46 7.29,6.62 6.90,6.90 6.62,7.29 6.46,7.79"/>
    </edge>
    <edge id=":A0_w0" function="walkingarea">
        <lane id=":A0_w0_0" index="0" allow="pedestrian" speed="2.78" length="14.94" width="4.00" shape="8.40,-6.40 8.40,-8.40 3.27,-7.93 -0.93,-6.53 -4.20,-4.20 -6.53,-0.93 -7.93,3.27 -8.40,8.40 -6.40,8.40 -5.99,3.88 -4.76,0.18 -2.70,-2.70 0.18,-4.76 3.88,-5.99"/>
    </edge>
    <edge id=":A0_w1" function="walkingarea">
        <lane id=":A0_w1_0" index="0" allow="pedestrian" speed="2.78" length="1.96" width="4.00" shape="6.40,8.40 8.40,8.40 8.40,6.40 7.79,6.46 7.29,6.62 6.90,6.90 6.62,7.29 6.46,7.79"/>
    </edge>
    <edge id=":A1_0" function="internal">
        <lane id=":A1_0_0" index="0" disallow="pedestrian" speed="13.89" length="20.80" shape="-4.80,210.40 -4.80,189.60"/>
        <lane id=":A1_0_1" index="1" disallow="pedestrian" speed="13.89" length="20.80" shape="-1.60,210.40 -1.60,189.60"/>
    </edge>
    <edge id=":A1_2" function="internal">
        <lane id=":A1_2_0" index="0" disallow="pedestrian" speed="9.26" length="5.01" shape="-1.60,210.40 -0.89,205.44"/>
    </edge>
    <edge id=":A1_3" function="internal">
        <lane id=":A1_3_0" index="0" disallow="pedestrian" speed="3.65" length="1.44" shape="-1.60,210.40 -0.80,209.20"/>
    </edge>
    <edge id=":A1_11" function="internal">
        <lane id=":A1_11_0" index="0" disallow="pedestrian" speed="9.26" length="14.34" shape="-0.89,205.44 -0.85,205.15 1.40,201.40 5.15,199.15 10.40,198.40"/>
    </edge>
    <edge id=":A1_12" function="internal">
        <lane id=":A1_12_0" index="0" disallow="pedestrian" speed="3.65" length="3.23" shape="-0.80,209.20 0.00,208.80 0.80,209.20 1.60,210.40"/>
    </edge>
    <edge id=":A1_4" function="internal">
        <lane id=":A1_4_0" index="0" disallow="pedestrian" speed="6.51" length="9.03" shape="10.40,204.80 7.95,205.15 6.20,206.20 5.15,207.95 4.80,210.40"/>
    </edge>
    <edge id=":A1_5" function="internal">
        <lane id=":A1_5_0" index="0" disallow="pedestrian" speed="9.26" length="19.35" shape="10.40,201.60 5.15,200.85 1.40,198.60 -0.85,194.85 -1.60,189.60"/>
    </edge>
    <edge id=":A1_6" function="internal">
        <lane id=":A1_6_0" index="0" disallow="pedestrian" speed="3.65" length="4.67" shape="10.40,201.60 9.20,200.80 8.80,200.00 9.20,199.20 10.40,198.40"/>
    </edge>
    <edge id=":A1_7" function="internal">
        <lane id=":A1_7_0" index="0" disallow="pedestrian" speed="6.51" length="4.75" shape="4.80,189.60 5.15,192.05 6.20,193.80 6.40,193.92"/>
    </edge>
    <edge id=":A1_8" function="internal">
        <lane id=":A1_8_0" index="0" disallow="pedestrian" speed="13.89" length="20.80" shape="4.80,189.60 4.80,210.40"/>
        <lane id=":A1_8_1" index="1" disallow="pedestrian" speed="13.89" length="20.80" shape="1.60,189.60 1.60,210.40"/>
    </edge>
    <edge id=":A1_10" function="internal">
        <lane id=":A1_10_0" index="0" disallow="pedestrian" speed="3.65" length="1.44" shape="1.60,189.60 0.80,190.80"/>
    </edge>
    <edge id=":A1_13" function="internal">
        <lane id=":A1_13_0" index="0" disallow="pedestrian" speed="6.51" length="4.28" shape="6.40,193.92 7.95,194.85 10.40,195.20"/>
    </edge>
    <edge id=":A1_14" function="internal">
        <lane id=":A1_14_0" index="0" disallow="pedestrian" speed="3.65" length="3.23" shape="0.80,190.80 0.00,191.20 -0.80,190.80 -1.60,189.60"/>
    </edge>
    <edge id=":A1_c0" function="crossing" crossingEdges="A1A2 A2A1">
        <lane id=":A1_c0_0" index="0" allow="pedestrian" speed="2.78" length="12.80" width="4.00" shape="6.40,208.40 -6.40,208.40" outlineShape="6.50,210.40 -6.50,210.40 -6.40,206.40 6.40,206.40 8.51,206.73 8.18,206.84 7.40,207.40 6.84,208.18 6.51,209.18"/>
    </edge>
    <edge id=":A1_c1" function="crossing" crossingEdges="A1B1 B1A1">
        <lane id=":A1_c1_0" index="0" allow="pedestrian" speed="2.78" length="12.80" width="4.00" shape="8.40,193.60 8.40,206.40" outlineShape="10.40,193.50 10.40,206.50 6.40,210.40 8.40,210.40 10.40,208.40 10.40,206.40 6.40,210.40 6.40,189.60 6.51,190.82 6.84,191.82 7.40,192.60 8.18,193.16 9.18,193.49"/>
    </edge>
    <edge id=":A1_c2" function="crossing" crossingEdges="A1A0 A0A1">
        <lane id=":A1_c2_0" index="0" allow="pedestrian" speed="2.78" length="12.80" width="4.00" shape="-6.40,191.60 6.40,191.60" outlineShape="-6.50,189.60 6.50,189.60 6.51,190.82 6.84,191.82 7.40,192.60 8.18,193.16 8.51,193.27 6.40,193.60 -6.40,193.60"/>
    </edge>
    <edge id=":A1_w0" function="walkingarea">
        <lane id=":A1_w0_0" index="0" allow="pedestrian" speed="2.78" length="13.29" width="4.00" shape="-6.40,193.60 -6.40,189.60 -8.40,189.60 -8.40,210.40 -6.40,210.40 -6.40,206.40"/>
    </edge>
    <edge id=":A1_w1" function="walkingarea">
        <lane id=":A1_w1_0" index="0" allow="pedestrian" speed="2.78" length="3.30" width="4.00" shape="6.40,210.40 8.40,210.40 10.40,208.40 10.40,206.40 9.18,206.51 8.18,206.84 7.40,207.40 6.84,208.18 6.51,209.18"/>
    </edge>
    <edge id=":A1_w2" function="walkingarea">
        <lane id=":A1_w2_0" index="0" allow="pedestrian" speed="2.78" length="3.30" width="4.00" shape="10.40,193.60 10.40,191.60 8.40,189.60 6.40,189.60 6.51,190.82 6.84,191.82 7.40,192.60 8.18,193.16 9.18,193.49"/>
    </edge>
    <edge id=":A2_0" function="internal">
        <lane id=":A2_0_0" index="0" disallow="pedestrian" speed="9.69" length="21.29" shape="8.40,404.80 2.63,403.98 -1.50,401.50 -3.97,397.38 -4.80,391.60"/>
        <lane id=":A2_0_1" index="1" disallow="pedestrian" speed="8.49" length="16.13" shape="8.40,401.60 4.03,400.98 0.90,399.10 -0.97,395.98 -1.60,391.60"/>
    </edge>
    <edge id=":A2_2" function="internal">
        <lane id=":A2_2_0" index="0" disallow="pedestrian" speed="5.37" length="5.81" shape="4.80,391.60 5.03,393.18 5.70,394.30 6.83,394.97 8.40,395.20"/>
        <lane id=":A2_2_1" index="1" disallow="pedestrian" speed="7.10" length="6.77" shape="1.60,391.60 2.03,394.57 3.30,396.70 4.40,397.36"/>
    </edge>
    <edge id=":A2_4" function="internal">
        <lane id=":A2_4_0" index="0" disallow="pedestrian" speed="7.10" length="4.20" shape="4.40,397.36 5.43,397.97 8.40,398.40"/>
    </edge>
    <edge id=":A2_c0" function="crossing" crossingEdges="A2B2 B2A2">
        <lane id=":A2_c0_0" index="0" allow="pedestrian" speed="2.78" length="12.80" width="4.00" shape="6.40,393.60 6.40,406.40" outlineShape="8.40,393.60 8.40,406.40 4.40,408.04 8.40,408.40 8.40,406.40 4.40,406.40 4.40,393.60 6.40,391.60 6.46,392.21 6.62,392.71 6.90,393.10 7.29,393.38 7.79,393.54"/>
    </edge>
    <edge id=":A2_w0" function="walkingarea">
        <lane id=":A2_w0_0" index="0" allow="pedestrian" speed="2.78" length="14.94" width="4.00" shape="-6.40,391.60 -8.40,391.60 -7.93,396.73 -6.53,400.93 -4.20,404.20 -0.93,406.53 3.27,407.93 8.40,408.40 8.40,406.40 3.88,405.99 0.18,404.76 -2.70,402.70 -4.76,399.82 -5.99,396.12"/>
    </edge>
    <edge id=":A2_w1" function="walkingarea">
        <lane id=":A2_w1_0" index="0" allow="pedestrian" speed="2.78" length="1.96" width="4.00" shape="8.40,393.60 8.40,391.60 6.40,391.60 6.46,392.21 6.62,392.71 6.90,393.10 7.29,393.38 7.79,393.54"/>
    </edge>
    <edge id=":B0_0" function="internal">
        <lane id=":B0_0_0" index="0" disallow="pedestrian" speed="6.51" length="9.03" shape="195.20,10.40 194.85,7.95 193.80,6.20 192.05,5.15 189.60,4.80"/>
    </edge>
    <edge id=":B0_1" function="internal">
        <lane id=":B0_1_0" index="0" disallow="pedestrian" speed="9.26" length="19.35" shape="198.40,10.40 199.15,5.15 201.40,1.40 205.15,-0.85 210.40,-1.60"/>
    </edge>
    <edge id=":B0_2" function="internal">
        <lane id=":B0_2_0" index="0" disallow="pedestrian" speed="3.65" length="4.67" shape="198.40,10.40 199.20,9.20 200.00,8.80 200.80,9.20 201.60,10.40"/>
    </edge>
    <edge id=":B0_3" function="internal">
        <lane id=":B0_3_0" index="0" disallow="pedestrian" speed="6.51" length="4.75" shape="210.40,4.80 207.95,5.15 206.20,6.20 206.08,6.40"/>
    </edge>
    <edge id=":B0_4" function="internal">
        <lane id=":B0_4_0" index="0" disallow="pedestrian" speed="13.89" length="20.80" shape="210.40,4.80 189.60,4.80"/>
        <lane id=":B0_4_1" index="1" disallow="pedestrian" speed="13.89" length="20.80" shape="210.40,1.60 189.60,1.60"/>
    </edge>
    <edge id=":B0_6" function="internal">
        <lane id=":B0_6_0" index="0" disallow="pedestrian" speed="3.65" length="1.44" shape="210.40,1.60 209.20,0.80"/>
    </edge>
    <edge id=":B0_11" function="internal">
        <lane id=":B0_11_0" index="0" disallow="pedestrian" speed="6.51" length="4.28" shape="206.08,6.40 205.15,7.95 204.80,10.40"/>
    </edge>
    <edge id=":B0_12" function="internal">
        <lane id=":B0_12_0" index="0" disallow="pedestrian" speed="3.65" length="3.23" shape="209.20,0.80 208.80,0.00 209.20,-0.80 210.40,-1.60"/>
    </edge>
    <edge id=":B0_7" function="internal">
        <lane id=":B0_7_0" index="0" disallow="pedestrian" speed="13.89" length="20.80" shape="189.60,-4.80 210.40,-4.80"/>
        <lane id=":B0_7_1" index="1" disallow="pedestrian" speed="13.89" length="20.80" shape="189.60,-1.60 210.40,-1.60"/>
    </edge>
    <edge id=":B0_9" function="internal">
        <lane id=":B0_9_0" index="0" disallow="pedestrian" speed="9.26" length="5.01" shape="189.60,-1.60 194.56,-0.89"/>
    </edge>
    <edge id=":B0_10" function="internal">
        <lane id=":B0_10_0" index="0" disallow="pedestrian" speed="3.65" length="1.44" shape="189.60,-1.60 190.80,-0.80"/>
    </edge>
    <edge id=":B0_13" function="internal">
        <lane id=":B0_13_0" index="0" disallow="pedestrian" speed="9.26" length="14.34" shape="194.56,-0.89 194.85,-0.85 198.60,1.40 200.85,5.15 201.60,10.40"/>
    </edge>
    <edge id=":B0_14" function="internal">
        <lane id=":B0_14_0" index="0" disallow="pedestrian" speed="3.65" length="3.23" shape="190.80,-0.80 191.20,0.00 190.80,0.80 189.60,1.60"/>
    </edge>
    <edge id=":B0_c0" function="crossing" crossingEdges="B0B1 B1B0">
        <lane id=":B0_c0_0" index="0" allow="pedestrian" speed="2.78" length="12.80" width="4.00" shape="206.40,8.40 193.60,8.40" outlineShape="206.50,10.40 193.50,10.40 189.60,6.40 189.60,8.40 191.60,10.40 193.60,10.40 189.60,6.40 210.40,6.40 209.18,6.51 208.18,6.84 207.40,7.40 206.84,8.18 206.51,9.18"/>
    </edge>
    <edge id=":B0_c1" function="crossing" crossingEdges="B0C0 C0B0">
        <lane id=":B0_c1_0" index="0" allow="pedestrian" speed="2.78" length="12.80" width="4.00" shape="208.40,-6.40 208.40,6.40" outlineShape="210.40,-6.50 210.40,6.50 209.18,6.51 208.18,6.84 207.40,7.40 206.84,8.18 206.73,8.51 206.40,6.40 206.40,-6.40"/>
    </edge>
    <edge id=":B0_c2" function="crossing" crossingEdges="B0A0 A0B0">
        <lane id=":B0_c2_0" index="0" allow="pedestrian" speed="2.78" length="12.80" width="4.00" shape="191.60,6.40 191.60,-6.40" outlineShape="189.60,6.50 189.60,-6.50 193.60,-8.40 189.60,-8.40 189.60,-6.40 193.60,-6.40 193.60,6.40 193.27,8.51 193.16,8.18 192.60,7.40 191.82,6.84 190.82,6.51"/>
    </edge>
    <edge id=":B0_w0" function="walkingarea">
        <lane id=":B0_w0_0" index="0" allow="pedestrian" speed="2.78" length="3.30" width="4.00" shape="189.60,6.40 189.60,8.40 191.60,10.40 193.60,10.40 193.49,9.18 193.16,8.18 192.60,7.40 191.82,6.84 190.82,6.51"/>
    </edge>
    <edge id=":B0_w1" function="walkingarea">
        <lane id=":B0_w1_0" index="0" allow="pedestrian" speed="2.78" length="3.30" width="4.00" shape="206.40,10.40 208.40,10.40 210.40,8.40 210.40,6.40 209.18,6.51 208.18,6.84 207.40,7.40 206.84,8.18 206.51,9.18"/>
    </edge>
    <edge id=":B0_w2" function="walkingarea">
        <lane id=":B0_w2_0" index="0" allow="pedestrian" speed="2.78" length="13.29" width="4.00" shape="206.40,-6.40 210.40,-6.40 210.40,-8.40 189.60,-8.40 189.60,-6.40 193.60,-6.40"/>
    </edge>
    <edge id=":B1_0" function="internal">
        <lane id=":B1_0_0" index="0" disallow="pedestrian" speed="6.51" length="4.75" shape="195.20,210.40 194.85,207.95 193.80,206.20 193.60,206.08"/>
    </edge>
    <edge id=":B1_1" function="internal">
        <lane id=":B1_1_0" index="0" disallow="pedestrian" speed="13.89" length="20.80" shape="195.20,210.40 195.20,189.60"/>
        <lane id=":B1_1_1" index="1" disallow="pedestrian" speed="13.89" length="20.80" shape="198.40,210.40 198.40,189.60"/>
    </edge>
    <edge id=":B1_3" function="internal">
        <lane id=":B1_3_0" index="0" disallow="pedestrian" speed="9.26" length="5.01" shape="198.40,210.40 199.11,205.44"/>
    </edge>
    <edge id=":B1_4" function="internal">
        <lane id=":B1_4_0" index="0" disallow="pedestrian" speed="3.65" length="1.44" shape="198.40,210.40 199.20,209.20"/>
    </edge>
    <edge id=":B1_20" function="internal">
        <lane id=":B1_20_0" index="0" disallow="pedestrian" speed="6.51" length="4.28" shape="193.60,206.08 192.05,205.15 189.60,204.80"/>
    </edge>
    <edge id=":B1_21" function="internal">
        <lane id=":B1_21_0" index="0" disallow="pedestrian" speed="9.26" length="14.34" shape="199.11,205.44 199.15,205.15 201.40,201.40 205.15,199.15 210.40,198.40"/>
    </edge>
    <edge id=":B1_22" function="internal">
        <lane id=":B1_22_0" index="0" disallow="pedestrian" speed="3.65" length="3.23" shape="199.20,209.20 200.00,208.80 200.80,209.20 201.60,210.40"/>
    </edge>
    <edge id=":B1_5" function="internal">
        <lane id=":B1_5_0" index="0" disallow="pedestrian" speed="6.51" length="4.75" shape="210.40,204.80 207.95,205.15 206.20,206.20 206.08,206.40"/>
    </edge>
    <edge id=":B1_6" function="internal">
        <lane id=":B1_6_0" index="0" disallow="pedestrian" speed="13.89" length="20.80" shape="210.40,204.80 189.60,204.80"/>
        <lane id=":B1_6_1" index="1" disallow="pedestrian" speed="13.89" length="20.80" shape="210.40,201.60 189.60,201.60"/>
    </edge>
    <edge id=":B1_8" function="internal">
        <lane id=":B1_8_0" index="0" disallow="pedestrian" speed="9.26" length="5.01" shape="210.40,201.60 205.44,200.89"/>
    </edge>
    <edge id=":B1_9" function="internal">
        <lane id=":B1_9_0" index="0" disallow="pedestrian" speed="3.65" length="1.44" shape="210.40,201.60 209.20,200.80"/>
    </edge>
    <edge id=":B1_23" function="internal">
        <lane id=":B1_23_0" index="0" disallow="pedestrian" speed="6.51" length="4.28" shape="206.08,206.40 205.15,207.95 204.80,210.40"/>
    </edge>
    <edge id=":B1_24" function="internal">
        <lane id=":B1_24_0" index="0" disallow="pedestrian" speed="9.26" length="14.34" shape="205.44,200.89 205.15,200.85 201.40,198.60 199.15,194.85 198.40,189.60"/>
    </edge>
    <edge id=":B1_25" function="internal">
        <lane id=":B1_25_0" index="0" disallow="pedestrian" speed="3.65" length="3.23" shape="209.20,200.80 208.80,200.00 209.20,199.20 210.40,198.40"/>
    </edge>
    <edge id=":B1_10" function="internal">
        <lane id=":B1_10_0" index="0" disallow="pedestrian" speed="6.51" length="4.75" shape="204.80,189.60 205.15,192.05 206.20,193.80 206.40,193.92"/>
    </edge>
    <edge id=":B1_11" function="internal">
        <lane id=":B1_11_0" index="0" disallow="pedestrian" speed="13.89" length="20.80" shape="204.80,189.60 204.80,210.40"/>
        <lane id=":B1_11_1" index="1" disallow="pedestrian" speed="13.89" length="20.80" shape="201.60,189.60 201.60,210.40"/>
    </edge>
    <edge id=":B1_13" function="internal">
        <lane id=":B1_13_0" index="0" disallow="pedestrian" speed="9.26" length="5.01" shape="201.60,189.60 200.89,194.56"/>
    </edge>
    <edge id=":B1_14" function="internal">
        <lane id=":B1_14_0" index="0" disallow="pedestrian" speed="3.65" length="1.44" shape="201.60,189.60 200.80,190.80"/>
    </edge>
    <edge id=":B1_26" function="internal">
        <lane id=":B1_26_0" index="0" disallow="pedestrian" speed="6.51" length="4.28" shape="206.40,193.92 207.95,194.85 210.40,195.20"/>
    </edge>
    <edge id=":B1_27" function="internal">
        <lane id=":B1_27_0" index="0" disallow="pedestrian" speed="9.26" length="14.34" shape="200.89,194.56 200.85,194.85 198.60,198.60 194.85,200.85 189.60,201.60"/>
    </edge>
    <edge id=":B1_28" function="internal">
        <lane id=":B1_28_0" index="0" disallow="pedestrian" speed="3.65" length="3.23" shape="200.80,190.80 200.00,191.20 199.20,190.80 198.40,189.60"/>
    </edge>
    <edge id=":B1_15" function="internal">
        <lane id=":B1_15_0" index="0" disallow="pedestrian" speed="6.51" length="4.75" shape="189.60,195.20 192.05,194.85 193.80,193.80 193.92,193.60"/>
    </edge>
    <edge id=":B1_16" function="internal">
        <lane id=":B1_16_0" index="0" disallow="pedestrian" speed="13.89" length="20.80" shape="189.60,195.20 210.40,195.20"/>
        <lane id=":B1_16_1" index="1" disallow="pedestrian" speed="13.89" length="20.80" shape="189.60,198.40 210.40,198.40"/>
    </edge>
    <edge id=":B1_18" function="internal">
        <lane id=":B1_18_0" index="0" disallow="pedestrian" speed="9.26" length="5.01" shape="189.60,198.40 194.56,199.11"/>
    </edge>
    <edge id=":B1_19" function="internal">
        <lane id=":B1_19_0" index="0" disallow="pedestrian" speed="3.65" length="1.44" shape="189.60,198.40 190.80,199.20"/>
    </edge>
    <edge id=":B1_29" function="internal">
        <lane id=":B1_29_0" index="0" disallow="pedestrian" speed="6.51" length="4.28" shape="193.92,193.60 194.85,192.05 195.20,189.60"/>
    </edge>
    <edge id=":B1_30" function="internal">
        <lane id=":B1_30_0" index="0" disallow="pedestrian" speed="9.26" length="14.34" shape="194.56,199.11 194.85,199.15 198.60,201.40 200.85,205.15 201.60,210.40"/>
    </edge>
    <edge id=":B1_31" function="internal">
        <lane id=":B1_31_0" index="0" disallow="pedestrian" speed="3.65" length="3.23" shape="190.80,199.20 191.20,200.00 190.80,200.80 189.60,201.60"/>
    </edge>
    <edge id=":B1_c0" function="crossing" crossingEdges="B1B2 B2B1">
        <lane id=":B1_c0_0" index="0" allow="pedestrian" speed="2.78" length="12.80" width="4.00" shape="206.40,208.40 193.60,208.40" outlineShape="206.50,210.40 193.50,210.40 189.60,206.40 189.60,208.40 191.60,210.40 193.60,210.40 189.60,206.40 210.40,206.40 209.18,206.51 208.18,206.84 207.40,207.40 206.84,208.18 206.51,209.18"/>
    </edge>
    <edge id=":B1_c1" function="crossing" crossingEdges="B1C1 C1B1">
        <lane id=":B1_c1_0" index="0" allow="pedestrian" speed="2.78" length="12.80" width="4.00" shape="208.40,193.60 208.40,206.40" outlineShape="210.40,193.50 210.40,206.50 206.40,210.40 208.40,210.40 210.40,208.40 210.40,206.40 206.40,210.40 206.40,189.60 206.51,190.82 206.84,191.82 207.40,192.60 208.18,193.16 209.18,193.49"/>
    </edge>
    <edge id=":B1_c2" function="crossing" crossingEdges="B1B0 B0B1">
        <lane id=":B1_c2_0" index="0" allow="pedestrian" speed="2.78" length="12.80" width="4.00" shape="193.60,191.60 206.40,191.60" outlineShape="193.50,189.60 206.50,189.60 210.40,193.60 210.40,191.60 208.40,189.60 206.40,189.60 210.40,193.60 189.60,193.60 190.82,193.49 191.82,193.16 192.60,192.60 193.16,191.82 193.49,190.82"/>
    </edge>
    <edge id=":B1_c3" function="crossing" crossingEdges="B1A1 A1B1">
        <lane id=":B1_c3_0" index="0" allow="pedestrian" speed="2.78" length="12.80" width="4.00" shape="191.60,206.40 191.60,193.60" outlineShape="189.60,206.50 189.60,193.50 193.60,189.60 191.60,189.60 189.60,191.60 189.60,193.60 193.60,189.60 193.60,210.40 193.49,209.18 193.16,208.18 192.60,207.40 191.82,206.84 190.82,206.51"/>
    </edge>
    <edge id=":B1_w0" function="walkingarea">
        <lane id=":B1_w0_0" index="0" allow="pedestrian" speed="2.78" length="3.30" width="4.00" shape="189.60,206.40 189.60,208.40 191.60,210.40 193.60,210.40 193.49,209.18 193.16,208.18 192.60,207.40 191.82,206.84 190.82,206.51"/>
    </edge>
    <edge id=":B1_w1" function="walkingarea">
        <lane id=":B1_w1_0" index="0" allow="pedestrian" speed="2.78" length="3.30" width="4.00" shape="206.40,210.40 208.40,210.40 210.40,208.40 210.40,206.40 209.18,206.51 208.18,206.84 207.40,207.40 206.84,208.18 206.51,209.18"/>
    </edge>
    <edge id=":B1_w2" function="walkingarea">
        <lane id=":B1_w2_0" index="0" allow="pedestrian" speed="2.78" length="3.30" width="4.00" shape="210.40,193.60 210.40,191.60 208.40,189.60 206.40,189.60 206.51,190.82 206.84,191.82 207.40,192.60 208.18,193.16 209.18,193.49"/>
    </edge>
    <edge id=":B1_w3" function="walkingarea">
        <lane id=":B1_w3_0" index="0" allow="pedestrian" speed="2.78" length="3.30" width="4.00" shape="193.60,189.60 191.60,189.60 189.60,191.60 189.60,193.60 190.82,193.49 191.82,193.16 192.60,192.60 193.16,191.82 193.49,190.82"/>
    </edge>
    <edge id=":B2_0" function="internal">
        <lane id=":B2_0_0" index="0" disallow="pedestrian" speed="13.89" length="20.80" shape="210.40,404.80 189.60,404.80"/>
        <lane id=":B2_0_1" index="1" disallow="pedestrian" speed="13.89" length="20.80" shape="210.40,401.60 189.60,401.60"/>
    </edge>
    <edge id=":B2_2" function="internal">
        <lane id=":B2_2_0" index="0" disallow="pedestrian" speed="9.26" length="5.01" shape="210.40,401.60 205.44,400.89"/>
    </edge>
    <edge id=":B2_3" function="internal">
        <lane id=":B2_3_0" index="0" disallow="pedestrian" speed="3.65" length="1.44" shape="210.40,401.60 209.20,400.80"/>
    </edge>
    <edge id=":B2_11" function="internal">
        <lane id=":B2_11_0" index="0" disallow="pedestrian" speed="9.26" length="14.34" shape="205.44,400.89 205.15,400.85 201.40,398.60 199.15,394.85 198.40,389.60"/>
    </edge>
    <edge id=":B2_12" function="internal">
        <lane id=":B2_12_0" index="0" disallow="pedestrian" speed="3.65" length="3.23" shape="209.20,400.80 208.80,400.00 209.20,399.20 210.40,398.40"/>
    </edge>
    <edge id=":B2_4" function="internal">
        <lane id=":B2_4_0" index="0" disallow="pedestrian" speed="6.51" length="9.03" shape="204.80,389.60 205.15,392.05 206.20,393.80 207.95,394.85 210.40,395.20"/>
    </edge>
    <edge id=":B2_5" function="internal">
        <lane id=":B2_5_0" index="0" disallow="pedestrian" speed="9.26" length="19.35" shape="201.60,389.60 200.85,394.85 198.60,398.60 194.85,400.85 189.60,401.60"/>
    </edge>
    <edge id=":B2_6" function="internal">
        <lane id=":B2_6_0" index="0" disallow="pedestrian" speed="3.65" length="4.67" shape="201.60,389.60 200.80,390.80 200.00,391.20 199.20,390.80 198.40,389.60"/>
    </edge>
    <edge id=":B2_7" function="internal">
        <lane id=":B2_7_0" index="0" disallow="pedestrian" speed="6.51" length="4.75" shape="189.60,395.20 192.05,394.85 193.80,393.80 193.92,393.60"/>
    </edge>
    <edge id=":B2_8" function="internal">
        <lane id=":B2_8_0" index="0" disallow="pedestrian" speed="13.89" length="20.80" shape="189.60,395.20 210.40,395.20"/>
        <lane id=":B2_8_1" index="1" disallow="pedestrian" speed="13.89" length="20.80" shape="189.60,398.40 210.40,398.40"/>
    </edge>
    <edge id=":B2_10" function="internal">
        <lane id=":B2_10_0" index="0" disallow="pedestrian" speed="3.65" length="1.44" shape="189.60,398.40 190.80,399.20"/>
    </edge>
    <edge id=":B2_13" function="internal">
        <lane id=":B2_13_0" index="0" disallow="pedestrian" speed="6.51" length="4.28" shape="193.92,393.60 194.85,392.05 195.20,389.60"/>
    </edge>
    <edge id=":B2_14" function="internal">
        <lane id=":B2_14_0" index="0" disallow="pedestrian" speed="3.65" length="3.23" shape="190.80,399.20 191.20,400.00 190.80,400.80 189.60,401.60"/>
    </edge>
    <edge id=":B2_c0" function="crossing" crossingEdges="B2C2 C2B2">
        <lane id=":B2_c0_0" index="0" allow="pedestrian" speed="2.78" length="12.80" width="4.00" shape="208.40,393.60 208.40,406.40" outlineShape="210.40,393.60 210.40,406.40 206.40,406.40 206.40,389.60 206.51,390.82 206.84,391.82 207.40,392.60 208.18,393.16 209.18,393.49"/>
    </edge>
    <edge id=":B2_c1" function="crossing" crossingEdges="B2B1 B1B2">
        <lane id=":B2_c1_0" index="0" allow="pedestrian" speed="2.78" length="12.80" width="4.00" shape="193.60,391.60 206.40,391.60" outlineShape="193.50,389.60 206.50,389.60 210.40,393.60 210.40,391.60 208.40,389.60 206.40,389.60 210.40,393.60 189.60,393.60 190.82,393.49 191.82,393.16 192.60,392.60 193.16,391.82 193.49,390.82"/>
    </edge>
    <edge id=":B2_c2" function="crossing" crossingEdges="B2A2 A2B2">
        <lane id=":B2_c2_0" index="0" allow="pedestrian" speed="2.78" length="12.80" width="4.00" shape="191.60,406.40 191.60,393.60" outlineShape="189.60,406.40 189.60,393.60 193.60,389.60 191.60,389.60 189.60,391.60 189.60,393.60 193.60,389.60 193.60,406.40"/>
    </edge>
    <edge id=":B2_w0" function="walkingarea">
        <lane id=":B2_w0_0" index="0" allow="pedestrian" speed="2.78" length="13.29" width="4.00" shape="193.60,406.40 189.60,406.40 189.60,408.40 210.40,408.40 210.40,406.40 206.40,406.40"/>
    </edge>
    <edge id=":B2_w1" function="walkingarea">
        <lane id=":B2_w1_0" index="0" allow="pedestrian" speed="2.78" length="3.30" width="4.00" shape="210.40,393.60 210.40,391.60 208.40,389.60 206.40,389.60 206.51,390.82 206.84,391.82 207.40,392.60 208.18,393.16 209.18,393.49"/>
    </edge>
    <edge id=":B2_w2" function="walkingarea">
        <lane id=":B2_w2_0" index="0" allow="pedestrian" speed="2.78" length="3.30" width="4.00" shape="193.60,389.60 191.60,389.60 189.60,391.60 189.60,393.60 190.82,393.49 191.82,393.16 192.60,392.60 193.16,391.82 193.49,390.82"/>
    </edge>
    <edge id=":C0_0" function="internal">
        <lane id=":C0_0_0" index="0" disallow="pedestrian" speed="5.37" length="5.81" shape="395.20,8.40 394.98,6.83 394.30,5.70 393.17,5.02 391.60,4.80"/>
        <lane id=":C0_0_1" index="1" disallow="pedestrian" speed="7.10" length="10.97" shape="398.40,8.40 397.98,5.43 396.70,3.30 394.57,2.02 391.60,1.60"/>
    </edge>
    <edge id=":C0_2" function="internal">
        <lane id=":C0_2_0" index="0" disallow="pedestrian" speed="9.69" length="21.29" shape="391.60,-4.80 397.38,-3.97 401.50,-1.50 403.98,2.63 404.80,8.40"/>
        <lane id=":C0_2_1" index="1" disallow="pedestrian" speed="8.49" length="16.13" shape="391.60,-1.60 395.98,-0.97 399.10,0.90 400.98,4.03 401.60,8.40"/>
    </edge>
    <edge id=":C0_c0" function="crossing" crossingEdges="C0C1 C1C0">
        <lane id=":C0_c0_0" index="0" allow="pedestrian" speed="2.78" length="12.80" width="4.00" shape="406.40,6.40 393.60,6.40" outlineShape="406.40,8.40 393.60,8.40 391.60,6.40 391.60,8.40 393.60,8.40 393.60,4.40 406.40,4.40 408.04,4.40 407.93,3.27 406.53,-0.93 404.20,-4.20 400.93,-6.53 396.73,-7.93 391.60,-8.40 391.60,-6.40 396.12,-5.99 399.82,-4.76 402.70,-2.70 404.76,0.18 405.99,3.88"/>
    </edge>
    <edge id=":C0_w0" function="walkingarea">
        <lane id=":C0_w0_0" index="0" allow="pedestrian" speed="2.78" length="1.96" width="4.00" shape="391.60,6.40 391.60,8.40 393.60,8.40 393.54,7.79 393.38,7.29 393.10,6.90 392.71,6.62 392.21,6.46"/>
    </edge>
    <edge id=":C0_w1" function="walkingarea">
        <lane id=":C0_w1_0" index="0" allow="pedestrian" speed="2.78" length="14.94" width="4.00" shape="406.40,8.40 408.40,8.40 407.93,3.27 406.53,-0.93 404.20,-4.20 400.93,-6.53 396.73,-7.93 391.60,-8.40 391.60,-6.40 396.12,-5.99 399.82,-4.76 402.70,-2.70 404.76,0.18 405.99,3.88"/>
    </edge>