<edges>
    <edge id="n_in" from="n" to="c" numLanes="1" speed="13.9" sidewalkWidth="1.0"/>
    <edge id="s_in" from="s" to="c" numLanes="1" speed="13.9" sidewalkWidth="1.0"/>
    <edge id="e_in" from="e" to="c" numLanes="1" speed="13.9" sidewalkWidth="1.0"/>
    <edge id="w_in" from="w" to="c" numLanes="1" speed="13.9" sidewalkWidth="1.0"/>

    <edge id="n_out" from="c" to="n" numLanes="1" speed="13.9" sidewalkWidth="1.0"/>
    <edge id="s_out" from="c" to="s" numLanes="1" speed="13.9" sidewalkWidth="1.0"/>
    <edge id="e_out" from="c" to="e" numLanes="1" speed="13.9" sidewalkWidth="1.0"/>
    <edge id="w_out" from="c" to="w" numLanes="1" speed="13.9" sidewalkWidth="1.0"/>
</edges>